Circuit: * Z:\home\shmuma\work\own\radio\Micro Preamp\preamp.asc

.OP point found by inspection.

Date: Fri Sep 17 15:52:54 2010
Total elapsed time: 0.173 seconds.

tnom = 27
temp = 27
method = modified trap
totiter = 2099
traniter = 2099
tranpoints = 1046
accept = 1046
rejected = 0
matrix size = 6
fillins = 0
solver = Normal
Matrix Compiler1: 298 байт object code size  0.5/0.6/[0.4]
Matrix Compiler2: 462 байт object code size  0.4/0.8/[0.3]


